Hello, GitHub
New Line.
one more line
line number four.
line number five
line number six
line six six
