Hello, GitHub
New Line.
one more line
line number four.
